# generated using pymatgen
data_CuCl2
_symmetry_space_group_name_H-M   'P 1'
_cell_length_a   3.30704059
_cell_length_b   3.83902097
_cell_length_c   6.20078633
_cell_angle_alpha   82.45655195
_cell_angle_beta   74.53419217
_cell_angle_gamma   64.48712910
_symmetry_Int_Tables_number   1
_chemical_formula_structural   CuCl2
_chemical_formula_sum   'Cu1 Cl2'
_cell_volume   68.46259636
_cell_formula_units_Z   1
loop_
 _symmetry_equiv_pos_site_id
 _symmetry_equiv_pos_as_xyz
  1  'x, y, z'
loop_
 _atom_site_type_symbol
 _atom_site_label
 _atom_site_symmetry_multiplicity
 _atom_site_fract_x
 _atom_site_fract_y
 _atom_site_fract_z
 _atom_site_occupancy
  Cu  Cu0  1  -0.00000000  -0.00000000  0.00000000  1
  Cl  Cl1  1  0.27593146  0.22187364  0.22626345  1
  Cl  Cl2  1  0.72406854  0.77812636  0.77373655  1
