# generated using pymatgen
data_TiH2
_symmetry_space_group_name_H-M   'P 1'
_cell_length_a   3.07715383
_cell_length_b   3.07715368
_cell_length_c   3.07715361
_cell_angle_alpha   94.74621238
_cell_angle_beta   117.29865002
_cell_angle_gamma   117.29864544
_symmetry_Int_Tables_number   1
_chemical_formula_structural   TiH2
_chemical_formula_sum   'Ti1 H2'
_cell_volume   21.36503301
_cell_formula_units_Z   1
loop_
 _symmetry_equiv_pos_site_id
 _symmetry_equiv_pos_as_xyz
  1  'x, y, z'
loop_
 _atom_site_type_symbol
 _atom_site_label
 _atom_site_symmetry_multiplicity
 _atom_site_fract_x
 _atom_site_fract_y
 _atom_site_fract_z
 _atom_site_occupancy
  Ti  Ti0  1  0.00000000  -0.00000000  -0.00000000  1
  H  H1  1  0.50000000  0.25000000  0.75000000  1
  H  H2  1  0.50000000  0.75000000  0.25000000  1
