# generated using pymatgen
data_Hf2Pd
_symmetry_space_group_name_H-M   'P 1'
_cell_length_a   3.26595867
_cell_length_b   3.26595807
_cell_length_c   5.86049106
_cell_angle_alpha   106.18122097
_cell_angle_beta   106.18122024
_cell_angle_gamma   90.02903926
_symmetry_Int_Tables_number   1
_chemical_formula_structural   Hf2Pd
_chemical_formula_sum   'Hf2 Pd1'
_cell_volume   57.44878378
_cell_formula_units_Z   1
loop_
 _symmetry_equiv_pos_site_id
 _symmetry_equiv_pos_as_xyz
  1  'x, y, z'
loop_
 _atom_site_type_symbol
 _atom_site_label
 _atom_site_symmetry_multiplicity
 _atom_site_fract_x
 _atom_site_fract_y
 _atom_site_fract_z
 _atom_site_occupancy
  Hf  Hf0  1  0.65859961  0.65859961  0.31666184  1
  Hf  Hf1  1  0.34139939  0.34139939  0.68333816  1
  Pd  Pd2  1  0.00000000  -0.00000000  -0.00000000  1
