# generated using pymatgen
data_HfH2
_symmetry_space_group_name_H-M   'P 1'
_cell_length_a   3.25435915
_cell_length_b   3.25435839
_cell_length_c   3.25435891
_cell_angle_alpha   97.54439355
_cell_angle_beta   115.74411764
_cell_angle_gamma   115.74413667
_symmetry_Int_Tables_number   1
_chemical_formula_structural   HfH2
_chemical_formula_sum   'Hf1 H2'
_cell_volume   25.69763584
_cell_formula_units_Z   1
loop_
 _symmetry_equiv_pos_site_id
 _symmetry_equiv_pos_as_xyz
  1  'x, y, z'
loop_
 _atom_site_type_symbol
 _atom_site_label
 _atom_site_symmetry_multiplicity
 _atom_site_fract_x
 _atom_site_fract_y
 _atom_site_fract_z
 _atom_site_occupancy
  Hf  Hf0  1  0.00000000  0.00000000  -0.00000000  1
  H  H1  1  0.50000000  0.25000000  0.75000000  1
  H  H2  1  0.50000000  0.75000000  0.25000000  1
