# generated using pymatgen
data_MnCdS2
_symmetry_space_group_name_H-M   'P 1'
_cell_length_a   4.08110018
_cell_length_b   4.08109913
_cell_length_c   6.61231686
_cell_angle_alpha   90.00013608
_cell_angle_beta   89.99987306
_cell_angle_gamma   119.99975160
_symmetry_Int_Tables_number   1
_chemical_formula_structural   MnCdS2
_chemical_formula_sum   'Mn1 Cd1 S2'
_cell_volume   95.37614735
_cell_formula_units_Z   1
loop_
 _symmetry_equiv_pos_site_id
 _symmetry_equiv_pos_as_xyz
  1  'x, y, z'
loop_
 _atom_site_type_symbol
 _atom_site_label
 _atom_site_symmetry_multiplicity
 _atom_site_fract_x
 _atom_site_fract_y
 _atom_site_fract_z
 _atom_site_occupancy
  Mn  Mn0  1  -0.00000167  0.00000216  0.00306327  1
  Cd  Cd1  1  0.66666723  0.33333262  0.49730870  1
  S  S2  1  0.66666742  0.33333235  0.11231369  1
  S  S3  1  0.00000103  -0.00000113  0.63731534  1
