# generated using pymatgen
data_TaNbCN
_symmetry_space_group_name_H-M   'P 1'
_cell_length_a   5.50394634
_cell_length_b   5.50394634
_cell_length_c   5.50394659
_cell_angle_alpha   33.41816395
_cell_angle_beta   33.41816395
_cell_angle_gamma   33.41815311
_symmetry_Int_Tables_number   1
_chemical_formula_structural   TaNbCN
_chemical_formula_sum   'Ta1 Nb1 C1 N1'
_cell_volume   45.03684624
_cell_formula_units_Z   1
loop_
 _symmetry_equiv_pos_site_id
 _symmetry_equiv_pos_as_xyz
  1  'x, y, z'
loop_
 _atom_site_type_symbol
 _atom_site_label
 _atom_site_symmetry_multiplicity
 _atom_site_fract_x
 _atom_site_fract_y
 _atom_site_fract_z
 _atom_site_occupancy
  Ta  Ta0  1  0.74409800  0.74409800  0.74409800  1
  Nb  Nb1  1  0.25754900  0.25754900  0.25754900  1
  C  C2  1  0.00228300  0.00228300  0.00228300  1
  N  N3  1  0.49606900  0.49606900  0.49606900  1
