# generated using pymatgen
data_B2CN
_symmetry_space_group_name_H-M   'P 1'
_cell_length_a   4.64056592
_cell_length_b   4.64056592
_cell_length_c   4.64056613
_cell_angle_alpha   32.34111482
_cell_angle_beta   32.34111482
_cell_angle_gamma   32.34110234
_symmetry_Int_Tables_number   1
_chemical_formula_structural   B2CN
_chemical_formula_sum   'B2 C1 N1'
_cell_volume   25.42389845
_cell_formula_units_Z   1
loop_
 _symmetry_equiv_pos_site_id
 _symmetry_equiv_pos_as_xyz
  1  'x, y, z'
loop_
 _atom_site_type_symbol
 _atom_site_label
 _atom_site_symmetry_multiplicity
 _atom_site_fract_x
 _atom_site_fract_y
 _atom_site_fract_z
 _atom_site_occupancy
  B  B0  1  0.22335800  0.22335800  0.22335800  1
  B  B1  1  0.73234900  0.73234900  0.73234900  1
  C  C2  1  0.34491500  0.34491500  0.34491500  1
  N  N3  1  0.84787700  0.84787700  0.84787700  1
