# generated using pymatgen
data_Fe2Ni
_symmetry_space_group_name_H-M   'P 1'
_cell_length_a   2.51768684
_cell_length_b   2.51768684
_cell_length_c   6.26658300
_cell_angle_alpha   90.00000000
_cell_angle_beta   90.00000000
_cell_angle_gamma   120.00002197
_symmetry_Int_Tables_number   1
_chemical_formula_structural   Fe2Ni
_chemical_formula_sum   'Fe2 Ni1'
_cell_volume   34.40049961
_cell_formula_units_Z   1
loop_
 _symmetry_equiv_pos_site_id
 _symmetry_equiv_pos_as_xyz
  1  'x, y, z'
loop_
 _atom_site_type_symbol
 _atom_site_label
 _atom_site_symmetry_multiplicity
 _atom_site_fract_x
 _atom_site_fract_y
 _atom_site_fract_z
 _atom_site_occupancy
  Fe  Fe0  1  0.33333300  0.66666700  0.67148100  1
  Fe  Fe1  1  0.66666700  0.33333300  0.32851900  1
  Ni  Ni2  1  0.00000000  0.00000000  0.00000000  1
