# generated using pymatgen
data_TmAgTe2
_symmetry_space_group_name_H-M   'P 1'
_cell_length_a   4.31963258
_cell_length_b   4.31963149
_cell_length_c   6.99880281
_cell_angle_alpha   90.00000000
_cell_angle_beta   90.00000000
_cell_angle_gamma   119.99999234
_symmetry_Int_Tables_number   1
_chemical_formula_structural   TmAgTe2
_chemical_formula_sum   'Tm1 Ag1 Te2'
_cell_volume   113.09617809
_cell_formula_units_Z   1
loop_
 _symmetry_equiv_pos_site_id
 _symmetry_equiv_pos_as_xyz
  1  'x, y, z'
loop_
 _atom_site_type_symbol
 _atom_site_label
 _atom_site_symmetry_multiplicity
 _atom_site_fract_x
 _atom_site_fract_y
 _atom_site_fract_z
 _atom_site_occupancy
  Tm  Tm0  1  -0.00000000  0.00000000  -0.00000000  1
  Ag  Ag1  1  -0.00000000  0.00000000  0.50000000  1
  Te  Te2  1  0.66666700  0.33333300  0.74858375  1
  Te  Te3  1  0.33333300  0.66666700  0.25141625  1
