# generated using pymatgen
data_LiMg
_symmetry_space_group_name_H-M   'P 1'
_cell_length_a   3.13621979
_cell_length_b   3.13621979
_cell_length_c   10.11722545
_cell_angle_alpha   90.00000000
_cell_angle_beta   90.00000000
_cell_angle_gamma   120.00002096
_symmetry_Int_Tables_number   1
_chemical_formula_structural   LiMg
_chemical_formula_sum   'Li2 Mg2'
_cell_volume   86.17969460
_cell_formula_units_Z   2
loop_
 _symmetry_equiv_pos_site_id
 _symmetry_equiv_pos_as_xyz
  1  'x, y, z'
loop_
 _atom_site_type_symbol
 _atom_site_label
 _atom_site_symmetry_multiplicity
 _atom_site_fract_x
 _atom_site_fract_y
 _atom_site_fract_z
 _atom_site_occupancy
  Li  Li0  1  0.66666700  0.33333300  0.62438555  1
  Li  Li1  1  0.33333300  0.66666700  0.37561445  1
  Mg  Mg2  1  0.33333300  0.66666700  0.87077941  1
  Mg  Mg3  1  0.66666700  0.33333300  0.12922059  1
