# generated using pymatgen
data_LiTiTe2
_symmetry_space_group_name_H-M   'P 1'
_cell_length_a   4.00214489
_cell_length_b   4.00214617
_cell_length_c   6.87854798
_cell_angle_alpha   90.00000000
_cell_angle_beta   90.00000000
_cell_angle_gamma   119.99998950
_symmetry_Int_Tables_number   1
_chemical_formula_structural   LiTiTe2
_chemical_formula_sum   'Li1 Ti1 Te2'
_cell_volume   95.41424153
_cell_formula_units_Z   1
loop_
 _symmetry_equiv_pos_site_id
 _symmetry_equiv_pos_as_xyz
  1  'x, y, z'
loop_
 _atom_site_type_symbol
 _atom_site_label
 _atom_site_symmetry_multiplicity
 _atom_site_fract_x
 _atom_site_fract_y
 _atom_site_fract_z
 _atom_site_occupancy
  Li  Li0  1  -0.00000000  0.00000000  0.50000000  1
  Ti  Ti1  1  -0.00000000  0.00000000  -0.00000000  1
  Te  Te2  1  0.33333300  0.66666700  0.23863635  1
  Te  Te3  1  0.66666700  0.33333300  0.76136365  1
