# generated using pymatgen
data_Nd
_symmetry_space_group_name_H-M   'P 1'
_cell_length_a   3.72850236
_cell_length_b   3.72850181
_cell_length_c   9.15342319
_cell_angle_alpha   78.24852508
_cell_angle_beta   101.75147389
_cell_angle_gamma   119.99997594
_symmetry_Int_Tables_number   1
_chemical_formula_structural   Nd
_chemical_formula_sum   Nd3
_cell_volume   107.10960370
_cell_formula_units_Z   3
loop_
 _symmetry_equiv_pos_site_id
 _symmetry_equiv_pos_as_xyz
  1  'x, y, z'
loop_
 _atom_site_type_symbol
 _atom_site_label
 _atom_site_symmetry_multiplicity
 _atom_site_fract_x
 _atom_site_fract_y
 _atom_site_fract_z
 _atom_site_occupancy
  Nd  Nd0  1  0.00000000  -0.00000000  0.00000000  1
  Nd  Nd1  1  0.77747813  0.22252387  0.33243038  1
  Nd  Nd2  1  0.22252287  0.77747513  0.66757062  1
