# generated using pymatgen
data_CdCN2
_symmetry_space_group_name_H-M   'P 1'
_cell_length_a   5.27599882
_cell_length_b   5.27599910
_cell_length_c   5.27599952
_cell_angle_alpha   39.39670183
_cell_angle_beta   39.39670192
_cell_angle_gamma   39.39669151
_symmetry_Int_Tables_number   1
_chemical_formula_structural   CdCN2
_chemical_formula_sum   'Cd1 C1 N2'
_cell_volume   53.24385901
_cell_formula_units_Z   1
loop_
 _symmetry_equiv_pos_site_id
 _symmetry_equiv_pos_as_xyz
  1  'x, y, z'
loop_
 _atom_site_type_symbol
 _atom_site_label
 _atom_site_symmetry_multiplicity
 _atom_site_fract_x
 _atom_site_fract_y
 _atom_site_fract_z
 _atom_site_occupancy
  Cd  Cd0  1  -0.00000000  0.00000000  -0.00000000  1
  C  C1  1  0.50000000  0.50000000  0.50000000  1
  N  N2  1  0.58436682  0.58436682  0.58436682  1
  N  N3  1  0.41563318  0.41563318  0.41563318  1
