# generated using pymatgen
data_NaPrSe2
_symmetry_space_group_name_H-M   'P 1'
_cell_length_a   4.30316091
_cell_length_b   4.30316056
_cell_length_c   7.36207246
_cell_angle_alpha   73.00716863
_cell_angle_beta   73.00716956
_cell_angle_gamma   59.99999471
_symmetry_Int_Tables_number   1
_chemical_formula_structural   NaPrSe2
_chemical_formula_sum   'Na1 Pr1 Se2'
_cell_volume   111.13521469
_cell_formula_units_Z   1
loop_
 _symmetry_equiv_pos_site_id
 _symmetry_equiv_pos_as_xyz
  1  'x, y, z'
loop_
 _atom_site_type_symbol
 _atom_site_label
 _atom_site_symmetry_multiplicity
 _atom_site_fract_x
 _atom_site_fract_y
 _atom_site_fract_z
 _atom_site_occupancy
  Na  Na0  1  0.50000000  0.50000000  0.50000000  1
  Pr  Pr1  1  0.00000000  0.00000000  -0.00000000  1
  Se  Se2  1  0.74673295  0.74673295  0.75980016  1
  Se  Se3  1  0.25326705  0.25326705  0.24019984  1
