# generated using pymatgen
data_Ni2H
_symmetry_space_group_name_H-M   'P 1'
_cell_length_a   4.39175382
_cell_length_b   4.39175382
_cell_length_c   4.39175392
_cell_angle_alpha   33.46050024
_cell_angle_beta   33.46050024
_cell_angle_gamma   33.46048887
_symmetry_Int_Tables_number   1
_chemical_formula_structural   Ni2H
_chemical_formula_sum   'Ni2 H1'
_cell_volume   22.93302710
_cell_formula_units_Z   1
loop_
 _symmetry_equiv_pos_site_id
 _symmetry_equiv_pos_as_xyz
  1  'x, y, z'
loop_
 _atom_site_type_symbol
 _atom_site_label
 _atom_site_symmetry_multiplicity
 _atom_site_fract_x
 _atom_site_fract_y
 _atom_site_fract_z
 _atom_site_occupancy
  Ni  Ni0  1  0.25273095  0.25273095  0.25273095  1
  Ni  Ni1  1  0.74726905  0.74726905  0.74726905  1
  H  H2  1  0.50000000  0.50000000  0.50000000  1
