# generated using pymatgen
data_NaHF2
_symmetry_space_group_name_H-M   'P 1'
_cell_length_a   4.97328626
_cell_length_b   4.97328538
_cell_length_c   4.97328625
_cell_angle_alpha   39.90997674
_cell_angle_beta   39.90998753
_cell_angle_gamma   39.90998123
_symmetry_Int_Tables_number   1
_chemical_formula_structural   NaHF2
_chemical_formula_sum   'Na1 H1 F2'
_cell_volume   45.61410383
_cell_formula_units_Z   1
loop_
 _symmetry_equiv_pos_site_id
 _symmetry_equiv_pos_as_xyz
  1  'x, y, z'
loop_
 _atom_site_type_symbol
 _atom_site_label
 _atom_site_symmetry_multiplicity
 _atom_site_fract_x
 _atom_site_fract_y
 _atom_site_fract_z
 _atom_site_occupancy
  Na  Na0  1  0.00000000  -0.00000000  0.00000000  1
  H  H1  1  0.50000000  0.50000000  0.50000000  1
  F  F2  1  0.58291882  0.58291882  0.58291882  1
  F  F3  1  0.41708118  0.41708118  0.41708118  1
