# generated using pymatgen
data_CeSe2
_symmetry_space_group_name_H-M   'P 1'
_cell_length_a   4.27452901
_cell_length_b   4.27369047
_cell_length_c   9.60769708
_cell_angle_alpha   77.57619632
_cell_angle_beta   90.00000357
_cell_angle_gamma   120.00646715
_symmetry_Int_Tables_number   1
_chemical_formula_structural   CeSe2
_chemical_formula_sum   'Ce1 Se2'
_cell_volume   147.22401801
_cell_formula_units_Z   1
loop_
 _symmetry_equiv_pos_site_id
 _symmetry_equiv_pos_as_xyz
  1  'x, y, z'
loop_
 _atom_site_type_symbol
 _atom_site_label
 _atom_site_symmetry_multiplicity
 _atom_site_fract_x
 _atom_site_fract_y
 _atom_site_fract_z
 _atom_site_occupancy
  Ce  Ce0  1  -0.00000000  -0.00000000  0.00000000  1
  Se  Se1  1  0.61666779  0.23333557  0.15510699  1
  Se  Se2  1  0.38333221  0.76666443  0.84489301  1
