# generated using pymatgen
data_NaCrSe2
_symmetry_space_group_name_H-M   'P 1'
_cell_length_a   7.10553710
_cell_length_b   7.10553725
_cell_length_c   7.10553866
_cell_angle_alpha   30.66555907
_cell_angle_beta   30.66555975
_cell_angle_gamma   30.66555082
_symmetry_Int_Tables_number   1
_chemical_formula_structural   NaCrSe2
_chemical_formula_sum   'Na1 Cr1 Se2'
_cell_volume   82.74373278
_cell_formula_units_Z   1
loop_
 _symmetry_equiv_pos_site_id
 _symmetry_equiv_pos_as_xyz
  1  'x, y, z'
loop_
 _atom_site_type_symbol
 _atom_site_label
 _atom_site_symmetry_multiplicity
 _atom_site_fract_x
 _atom_site_fract_y
 _atom_site_fract_z
 _atom_site_occupancy
  Na  Na0  1  0.50000000  0.50000000  0.50000000  1
  Cr  Cr1  1  -0.00000000  0.00000000  -0.00000000  1
  Se  Se2  1  0.26575999  0.26575999  0.26575999  1
  Se  Se3  1  0.73424001  0.73424001  0.73424001  1
