# generated using pymatgen
data_NaCrS2
_symmetry_space_group_name_H-M   'P 1'
_cell_length_a   6.76363675
_cell_length_b   6.76363642
_cell_length_c   6.76363762
_cell_angle_alpha   30.63302757
_cell_angle_beta   30.63303672
_cell_angle_gamma   30.63302865
_symmetry_Int_Tables_number   1
_chemical_formula_structural   NaCrS2
_chemical_formula_sum   'Na1 Cr1 S2'
_cell_volume   71.22486759
_cell_formula_units_Z   1
loop_
 _symmetry_equiv_pos_site_id
 _symmetry_equiv_pos_as_xyz
  1  'x, y, z'
loop_
 _atom_site_type_symbol
 _atom_site_label
 _atom_site_symmetry_multiplicity
 _atom_site_fract_x
 _atom_site_fract_y
 _atom_site_fract_z
 _atom_site_occupancy
  Na  Na0  1  0.50000000  0.50000000  0.50000000  1
  Cr  Cr1  1  0.00000000  -0.00000000  -0.00000000  1
  S  S2  1  0.73373559  0.73373559  0.73373559  1
  S  S3  1  0.26626441  0.26626441  0.26626441  1
