# generated using pymatgen
data_KPrO2
_symmetry_space_group_name_H-M   'P 1'
_cell_length_a   6.58403980
_cell_length_b   6.58403980
_cell_length_c   6.58404073
_cell_angle_alpha   32.26878585
_cell_angle_beta   32.26878585
_cell_angle_gamma   32.26877539
_symmetry_Int_Tables_number   1
_chemical_formula_structural   KPrO2
_chemical_formula_sum   'K1 Pr1 O2'
_cell_volume   72.31404929
_cell_formula_units_Z   1
loop_
 _symmetry_equiv_pos_site_id
 _symmetry_equiv_pos_as_xyz
  1  'x, y, z'
loop_
 _atom_site_type_symbol
 _atom_site_label
 _atom_site_symmetry_multiplicity
 _atom_site_fract_x
 _atom_site_fract_y
 _atom_site_fract_z
 _atom_site_occupancy
  K  K0  1  -0.00000000  -0.00000000  -0.00000000  1
  Pr  Pr1  1  0.50000000  0.50000000  0.50000000  1
  O  O2  1  0.76845257  0.76845257  0.76845257  1
  O  O3  1  0.23154743  0.23154743  0.23154743  1
