# generated using pymatgen
data_FeAgO2
_symmetry_space_group_name_H-M   'P 1'
_cell_length_a   6.35311275
_cell_length_b   6.35311282
_cell_length_c   6.35311311
_cell_angle_alpha   26.45837823
_cell_angle_beta   26.45838748
_cell_angle_gamma   26.45837999
_symmetry_Int_Tables_number   1
_chemical_formula_structural   FeAgO2
_chemical_formula_sum   'Fe1 Ag1 O2'
_cell_volume   44.86647144
_cell_formula_units_Z   1
loop_
 _symmetry_equiv_pos_site_id
 _symmetry_equiv_pos_as_xyz
  1  'x, y, z'
loop_
 _atom_site_type_symbol
 _atom_site_label
 _atom_site_symmetry_multiplicity
 _atom_site_fract_x
 _atom_site_fract_y
 _atom_site_fract_z
 _atom_site_occupancy
  Fe  Fe0  1  0.50000000  0.50000000  0.50000000  1
  Ag  Ag1  1  -0.00000000  0.00000000  0.00000000  1
  O  O2  1  0.88569500  0.88569500  0.88569500  1
  O  O3  1  0.11430500  0.11430500  0.11430500  1
