# generated using pymatgen
data_Li
_symmetry_space_group_name_H-M   'P 1'
_cell_length_a   3.07867429
_cell_length_b   3.07867244
_cell_length_c   7.66540779
_cell_angle_alpha   78.41531399
_cell_angle_beta   78.41531202
_cell_angle_gamma   59.99999673
_symmetry_Int_Tables_number   1
_chemical_formula_structural   Li
_chemical_formula_sum   Li3
_cell_volume   61.20566010
_cell_formula_units_Z   3
loop_
 _symmetry_equiv_pos_site_id
 _symmetry_equiv_pos_as_xyz
  1  'x, y, z'
loop_
 _atom_site_type_symbol
 _atom_site_label
 _atom_site_symmetry_multiplicity
 _atom_site_fract_x
 _atom_site_fract_y
 _atom_site_fract_z
 _atom_site_occupancy
  Li  Li0  1  0.77702792  0.77702792  0.66891525  1
  Li  Li1  1  0.22297208  0.22297208  0.33108475  1
  Li  Li2  1  -0.00000000  0.00000000  0.00000000  1
