# generated using pymatgen
data_CdAg3
_symmetry_space_group_name_H-M   'P 1'
_cell_length_a   9.64814730
_cell_length_b   9.64814730
_cell_length_c   9.64814794
_cell_angle_alpha   17.69515588
_cell_angle_beta   17.69515588
_cell_angle_gamma   17.69515115
_symmetry_Int_Tables_number   1
_chemical_formula_structural   CdAg3
_chemical_formula_sum   'Cd1 Ag3'
_cell_volume   72.42884999
_cell_formula_units_Z   1
loop_
 _symmetry_equiv_pos_site_id
 _symmetry_equiv_pos_as_xyz
  1  'x, y, z'
loop_
 _atom_site_type_symbol
 _atom_site_label
 _atom_site_symmetry_multiplicity
 _atom_site_fract_x
 _atom_site_fract_y
 _atom_site_fract_z
 _atom_site_occupancy
  Cd  Cd0  1  0.00000000  0.00000000  -0.00000000  1
  Ag  Ag1  1  0.24813118  0.24813118  0.24813118  1
  Ag  Ag2  1  0.50000000  0.50000000  0.50000000  1
  Ag  Ag3  1  0.75186882  0.75186882  0.75186882  1
