# generated using pymatgen
data_MnCoSe2
_symmetry_space_group_name_H-M   'P 1'
_cell_length_a   6.15390536
_cell_length_b   6.15390536
_cell_length_c   6.15390541
_cell_angle_alpha   35.26755812
_cell_angle_beta   35.26755812
_cell_angle_gamma   35.26756571
_symmetry_Int_Tables_number   1
_chemical_formula_structural   MnCoSe2
_chemical_formula_sum   'Mn1 Co1 Se2'
_cell_volume   69.40516908
_cell_formula_units_Z   1
loop_
 _symmetry_equiv_pos_site_id
 _symmetry_equiv_pos_as_xyz
  1  'x, y, z'
loop_
 _atom_site_type_symbol
 _atom_site_label
 _atom_site_symmetry_multiplicity
 _atom_site_fract_x
 _atom_site_fract_y
 _atom_site_fract_z
 _atom_site_occupancy
  Mn  Mn0  1  0.50000000  0.50000000  0.50000000  1
  Co  Co1  1  0.00000000  0.00000000  0.00000000  1
  Se  Se2  1  0.25778500  0.25778500  0.25778400  1
  Se  Se3  1  0.74221500  0.74221500  0.74221500  1
