# generated using pymatgen
data_HfZrN2
_symmetry_space_group_name_H-M   'P 1'
_cell_length_a   5.59313706
_cell_length_b   5.59313706
_cell_length_c   5.59313674
_cell_angle_alpha   33.38138334
_cell_angle_beta   33.38138334
_cell_angle_gamma   33.38139746
_symmetry_Int_Tables_number   1
_chemical_formula_structural   HfZrN2
_chemical_formula_sum   'Hf1 Zr1 N2'
_cell_volume   47.16720592
_cell_formula_units_Z   1
loop_
 _symmetry_equiv_pos_site_id
 _symmetry_equiv_pos_as_xyz
  1  'x, y, z'
loop_
 _atom_site_type_symbol
 _atom_site_label
 _atom_site_symmetry_multiplicity
 _atom_site_fract_x
 _atom_site_fract_y
 _atom_site_fract_z
 _atom_site_occupancy
  Hf  Hf0  1  0.00000000  0.00000000  -0.00000000  1
  Zr  Zr1  1  0.50000000  0.50000000  0.50000000  1
  N  N2  1  0.25457951  0.25457951  0.25457951  1
  N  N3  1  0.74542049  0.74542049  0.74542049  1
