# generated using pymatgen
data_CsLaS2
_symmetry_space_group_name_H-M   'P 1'
_cell_length_a   8.47795807
_cell_length_b   8.47795807
_cell_length_c   8.47795838
_cell_angle_alpha   29.60450367
_cell_angle_beta   29.60450367
_cell_angle_gamma   29.60451373
_symmetry_Int_Tables_number   1
_chemical_formula_structural   CsLaS2
_chemical_formula_sum   'Cs1 La1 S2'
_cell_volume   131.64959753
_cell_formula_units_Z   1
loop_
 _symmetry_equiv_pos_site_id
 _symmetry_equiv_pos_as_xyz
  1  'x, y, z'
loop_
 _atom_site_type_symbol
 _atom_site_label
 _atom_site_symmetry_multiplicity
 _atom_site_fract_x
 _atom_site_fract_y
 _atom_site_fract_z
 _atom_site_occupancy
  Cs  Cs0  1  0.00000000  0.00000000  0.00000000  1
  La  La1  1  0.50000000  0.50000000  0.50000000  1
  S  S2  1  0.22908551  0.22908551  0.22908551  1
  S  S3  1  0.77091449  0.77091449  0.77091449  1
