# generated using pymatgen
data_KBiS2
_symmetry_space_group_name_H-M   'P 1'
_cell_length_a   7.76748680
_cell_length_b   7.76748680
_cell_length_c   7.76748661
_cell_angle_alpha   30.80396644
_cell_angle_beta   30.80396644
_cell_angle_gamma   30.80395567
_symmetry_Int_Tables_number   1
_chemical_formula_structural   KBiS2
_chemical_formula_sum   'K1 Bi1 S2'
_cell_volume   108.99482554
_cell_formula_units_Z   1
loop_
 _symmetry_equiv_pos_site_id
 _symmetry_equiv_pos_as_xyz
  1  'x, y, z'
loop_
 _atom_site_type_symbol
 _atom_site_label
 _atom_site_symmetry_multiplicity
 _atom_site_fract_x
 _atom_site_fract_y
 _atom_site_fract_z
 _atom_site_occupancy
  K  K0  1  0.50000000  0.50000000  0.50000000  1
  Bi  Bi1  1  0.00000000  0.00000000  -0.00000000  1
  S  S2  1  0.26253338  0.26253338  0.26253338  1
  S  S3  1  0.73746662  0.73746662  0.73746662  1
