# generated using pymatgen
data_Mg3Cd
_symmetry_space_group_name_H-M   'P 1'
_cell_length_a   5.92484905
_cell_length_b   5.92484905
_cell_length_c   5.92484905
_cell_angle_alpha   148.73015274
_cell_angle_beta   125.99511442
_cell_angle_gamma   63.73979781
_symmetry_Int_Tables_number   1
_chemical_formula_structural   Mg3Cd
_chemical_formula_sum   'Mg3 Cd1'
_cell_volume   86.45296921
_cell_formula_units_Z   1
loop_
 _symmetry_equiv_pos_site_id
 _symmetry_equiv_pos_as_xyz
  1  'x, y, z'
loop_
 _atom_site_type_symbol
 _atom_site_label
 _atom_site_symmetry_multiplicity
 _atom_site_fract_x
 _atom_site_fract_y
 _atom_site_fract_z
 _atom_site_occupancy
  Mg  Mg0  1  0.84197277  0.50000000  0.34197277  1
  Mg  Mg1  1  0.25169242  0.25523552  0.99645590  1
  Mg  Mg2  1  0.74121939  0.74476448  0.99645590  1
  Cd  Cd3  1  0.33178242  0.00000000  0.33178242  1
