# generated using pymatgen
data_Cs2O2
_symmetry_space_group_name_H-M   'P 1'
_cell_length_a   4.33370959
_cell_length_b   5.41615688
_cell_length_c   5.41615714
_cell_angle_alpha   72.92185300
_cell_angle_beta   66.41727290
_cell_angle_gamma   66.41730183
_symmetry_Int_Tables_number   1
_chemical_formula_structural   Cs2O2
_chemical_formula_sum   'Cs2 O2'
_cell_volume   105.42063966
_cell_formula_units_Z   1
loop_
 _symmetry_equiv_pos_site_id
 _symmetry_equiv_pos_as_xyz
  1  'x, y, z'
loop_
 _atom_site_type_symbol
 _atom_site_label
 _atom_site_symmetry_multiplicity
 _atom_site_fract_x
 _atom_site_fract_y
 _atom_site_fract_z
 _atom_site_occupancy
  Cs  Cs0  1  0.74643967  0.25356033  0.25356033  1
  Cs  Cs1  1  0.25356033  0.74643967  0.74643967  1
  O  O2  1  -0.00000000  0.61719680  0.38280320  1
  O  O3  1  0.00000000  0.38280320  0.61719680  1
