# generated using pymatgen
data_VBO4
_symmetry_space_group_name_H-M   'P 1'
_cell_length_a   4.83705147
_cell_length_b   4.97784645
_cell_length_c   4.83705147
_cell_angle_alpha   60.93131538
_cell_angle_beta   90.00000000
_cell_angle_gamma   119.06867168
_symmetry_Int_Tables_number   1
_chemical_formula_structural   VBO4
_chemical_formula_sum   'V1 B1 O4'
_cell_volume   84.61988904
_cell_formula_units_Z   1
loop_
 _symmetry_equiv_pos_site_id
 _symmetry_equiv_pos_as_xyz
  1  'x, y, z'
loop_
 _atom_site_type_symbol
 _atom_site_label
 _atom_site_symmetry_multiplicity
 _atom_site_fract_x
 _atom_site_fract_y
 _atom_site_fract_z
 _atom_site_occupancy
  V  V0  1  -0.00000000  -0.00000000  0.00000000  1
  B  B1  1  0.75000000  0.50000000  0.75000000  1
  O  O2  1  0.40782383  0.26907057  0.96565473  1
  O  O3  1  0.76527370  0.73092943  0.40782383  1
  O  O4  1  0.86124674  0.26907057  0.76527370  1
  O  O5  1  0.96565473  0.73092943  0.86124674  1
