# generated using pymatgen
data_Ba2CaI6
_symmetry_space_group_name_H-M   'P 1'
_cell_length_a   8.31340200
_cell_length_b   8.31340200
_cell_length_c   24.64043800
_cell_angle_alpha   90.00000000
_cell_angle_beta   90.00000000
_cell_angle_gamma   90.00000000
_symmetry_Int_Tables_number   1
_chemical_formula_structural   Ba2CaI6
_chemical_formula_sum   'Ba8 Ca4 I24'
_cell_volume   1702.96603667
_cell_formula_units_Z   4
loop_
 _symmetry_equiv_pos_site_id
 _symmetry_equiv_pos_as_xyz
  1  'x, y, z'
loop_
 _atom_site_type_symbol
 _atom_site_label
 _atom_site_symmetry_multiplicity
 _atom_site_fract_x
 _atom_site_fract_y
 _atom_site_fract_z
 _atom_site_occupancy
  Ba  Ba0  1  0.00000000  0.50000000  0.16353600  1
  Ba  Ba1  1  0.00000000  0.00000000  0.33370500  1
  Ba  Ba2  1  0.00000000  0.00000000  0.66629500  1
  Ba  Ba3  1  0.00000000  0.50000000  0.83646400  1
  Ba  Ba4  1  0.50000000  0.50000000  0.33370500  1
  Ba  Ba5  1  0.50000000  0.00000000  0.16353600  1
  Ba  Ba6  1  0.50000000  0.00000000  0.83646400  1
  Ba  Ba7  1  0.50000000  0.50000000  0.66629500  1
  Ca  Ca8  1  0.00000000  0.00000000  0.00000000  1
  Ca  Ca9  1  0.00000000  0.50000000  0.50000000  1
  Ca  Ca10  1  0.50000000  0.00000000  0.50000000  1
  Ca  Ca11  1  0.50000000  0.50000000  0.00000000  1
  I  I12  1  0.20165600  0.69739000  0.58336300  1
  I  I13  1  0.20030400  0.79983100  0.08101600  1
  I  I14  1  0.20016900  0.20030400  0.91898400  1
  I  I15  1  0.19739000  0.70165600  0.41663700  1
  I  I16  1  0.24146600  0.25405400  0.24883800  1
  I  I17  1  0.24594600  0.25853400  0.75116200  1
  I  I18  1  0.25405400  0.75853400  0.75116200  1
  I  I19  1  0.25853400  0.75405400  0.24883800  1
  I  I20  1  0.29983100  0.70030400  0.91898400  1
  I  I21  1  0.30261000  0.20165600  0.41663700  1
  I  I22  1  0.29969600  0.29983100  0.08101600  1
  I  I23  1  0.29834400  0.19739000  0.58336300  1
  I  I24  1  0.70165600  0.80261000  0.58336300  1
  I  I25  1  0.70030400  0.70016900  0.08101600  1
  I  I26  1  0.70016900  0.29969600  0.91898400  1
  I  I27  1  0.69739000  0.79834400  0.41663700  1
  I  I28  1  0.74146600  0.24594600  0.24883800  1
  I  I29  1  0.74594600  0.24146600  0.75116200  1
  I  I30  1  0.75405400  0.74146600  0.75116200  1
  I  I31  1  0.75853400  0.74594600  0.24883800  1
  I  I32  1  0.80261000  0.29834400  0.41663700  1
  I  I33  1  0.79983100  0.79969600  0.91898400  1
  I  I34  1  0.79969600  0.20016900  0.08101600  1
  I  I35  1  0.79834400  0.30261000  0.58336300  1
