# generated using pymatgen
data_AgAuS2
_symmetry_space_group_name_H-M   'P 1'
_cell_length_a   4.79953271
_cell_length_b   9.52433605
_cell_length_c   7.72985459
_cell_angle_alpha   35.74843513
_cell_angle_beta   90.00000000
_cell_angle_gamma   90.00000000
_symmetry_Int_Tables_number   1
_chemical_formula_structural   AgAuS2
_chemical_formula_sum   'Ag2 Au2 S4'
_cell_volume   206.43673690
_cell_formula_units_Z   2
loop_
 _symmetry_equiv_pos_site_id
 _symmetry_equiv_pos_as_xyz
  1  'x, y, z'
loop_
 _atom_site_type_symbol
 _atom_site_label
 _atom_site_symmetry_multiplicity
 _atom_site_fract_x
 _atom_site_fract_y
 _atom_site_fract_z
 _atom_site_occupancy
  Ag  Ag0  1  0.25000000  0.25000000  0.00000000  1
  Ag  Ag1  1  0.25000000  0.25000000  0.50000000  1
  Au  Au2  1  0.75000000  0.75000000  0.25000000  1
  Au  Au3  1  0.75000000  0.75000000  0.75000000  1
  S  S4  1  0.92202311  0.13142296  0.86857704  1
  S  S5  1  0.92202311  0.36857704  0.13142296  1
  S  S6  1  0.57797689  0.13142296  0.36857704  1
  S  S7  1  0.57797689  0.36857704  0.63142296  1
