# generated using pymatgen
data_Ba2GdMoO6
_symmetry_space_group_name_H-M   'P 1'
_cell_length_a   6.06673681
_cell_length_b   6.06673681
_cell_length_c   6.06673681
_cell_angle_alpha   120.42890915
_cell_angle_beta   120.42890915
_cell_angle_gamma   89.25869919
_symmetry_Int_Tables_number   1
_chemical_formula_structural   Ba2GdMoO6
_chemical_formula_sum   'Ba2 Gd1 Mo1 O6'
_cell_volume   156.85067110
_cell_formula_units_Z   1
loop_
 _symmetry_equiv_pos_site_id
 _symmetry_equiv_pos_as_xyz
  1  'x, y, z'
loop_
 _atom_site_type_symbol
 _atom_site_label
 _atom_site_symmetry_multiplicity
 _atom_site_fract_x
 _atom_site_fract_y
 _atom_site_fract_z
 _atom_site_occupancy
  Ba  Ba0  1  0.25000000  0.75000000  0.50000000  1
  Ba  Ba1  1  0.75000000  0.25000000  0.50000000  1
  Gd  Gd2  1  0.00000000  0.00000000  0.00000000  1
  Mo  Mo3  1  0.50000000  0.50000000  0.00000000  1
  O  O4  1  0.26317700  0.26317700  0.00000000  1
  O  O5  1  0.73682300  0.73682300  0.00000000  1
  O  O6  1  0.24188200  0.29541400  0.53729600  1
  O  O7  1  0.75811800  0.70458600  0.46270400  1
  O  O8  1  0.70458600  0.24188200  0.94646800  1
  O  O9  1  0.29541400  0.75811800  0.05353200  1
