# generated using pymatgen
data_Ac2Br2O
_symmetry_space_group_name_H-M   'P 1'
_cell_length_a   4.61294000
_cell_length_b   4.61294000
_cell_length_c   13.99182900
_cell_angle_alpha   90.00000000
_cell_angle_beta   90.00000000
_cell_angle_gamma   90.00000000
_symmetry_Int_Tables_number   1
_chemical_formula_structural   Ac2Br2O
_chemical_formula_sum   'Ac2 Br2 O1'
_cell_volume   297.73514374
_cell_formula_units_Z   1
loop_
 _symmetry_equiv_pos_site_id
 _symmetry_equiv_pos_as_xyz
  1  'x, y, z'
loop_
 _atom_site_type_symbol
 _atom_site_label
 _atom_site_symmetry_multiplicity
 _atom_site_fract_x
 _atom_site_fract_y
 _atom_site_fract_z
 _atom_site_occupancy
  Ac  Ac0  1  0.50000000  0.50000000  0.15983100  1
  Ac  Ac1  1  0.50000000  0.50000000  0.84016900  1
  Br  Br2  1  0.50000000  0.50000000  0.63828300  1
  Br  Br3  1  0.50000000  0.50000000  0.36171700  1
  O  O4  1  0.50000000  0.50000000  0.00000000  1
