# generated using pymatgen
data_CaZrO3
_symmetry_space_group_name_H-M   'P 1'
_cell_length_a   5.83183500
_cell_length_b   8.12360400
_cell_length_c   11.45709200
_cell_angle_alpha   90.00000000
_cell_angle_beta   90.00000000
_cell_angle_gamma   90.00000000
_symmetry_Int_Tables_number   1
_chemical_formula_structural   CaZrO3
_chemical_formula_sum   'Ca8 Zr8 O24'
_cell_volume   542.78566980
_cell_formula_units_Z   8
loop_
 _symmetry_equiv_pos_site_id
 _symmetry_equiv_pos_as_xyz
  1  'x, y, z'
loop_
 _atom_site_type_symbol
 _atom_site_label
 _atom_site_symmetry_multiplicity
 _atom_site_fract_x
 _atom_site_fract_y
 _atom_site_fract_z
 _atom_site_occupancy
  Ca  Ca0  1  0.24936100  0.50465700  0.36187800  1
  Ca  Ca1  1  0.23578000  0.00512600  0.38789100  1
  Ca  Ca2  1  0.25063900  0.50465700  0.86187800  1
  Ca  Ca3  1  0.26422000  0.00512600  0.88789100  1
  Ca  Ca4  1  0.73578000  0.00512600  0.11210900  1
  Ca  Ca5  1  0.74936100  0.50465700  0.13812200  1
  Ca  Ca6  1  0.76422000  0.00512600  0.61210900  1
  Ca  Ca7  1  0.75063900  0.50465700  0.63812200  1
  Zr  Zr8  1  0.24749000  0.25533100  0.12524600  1
  Zr  Zr9  1  0.24991300  0.75541600  0.12494300  1
  Zr  Zr10  1  0.25251000  0.25533100  0.62524600  1
  Zr  Zr11  1  0.25008700  0.75541600  0.62494300  1
  Zr  Zr12  1  0.74991300  0.75541600  0.37505700  1
  Zr  Zr13  1  0.74749000  0.25533100  0.37475400  1
  Zr  Zr14  1  0.75008700  0.75541600  0.87505700  1
  Zr  Zr15  1  0.75251000  0.25533100  0.87475400  1
  O  O16  1  0.00000000  0.18671000  0.00000000  1
  O  O17  1  0.00000000  0.82235600  0.00000000  1
  O  O18  1  0.00000000  0.19422700  0.50000000  1
  O  O19  1  0.00000000  0.82224800  0.50000000  1
  O  O20  1  0.99875800  0.32270300  0.24953100  1
  O  O21  1  0.01206300  0.69115900  0.25459800  1
  O  O22  1  0.25011700  0.50629700  0.56596400  1
  O  O23  1  0.23179400  0.00654000  0.68445100  1
  O  O24  1  0.26820600  0.00654000  0.18445100  1
  O  O25  1  0.24988300  0.50629700  0.06596400  1
  O  O26  1  0.50124200  0.32270300  0.74953100  1
  O  O27  1  0.48793700  0.69115900  0.75459800  1
  O  O28  1  0.50000000  0.19422700  0.00000000  1
  O  O29  1  0.50000000  0.82224800  0.00000000  1
  O  O30  1  0.50000000  0.82235600  0.50000000  1
  O  O31  1  0.50000000  0.18671000  0.50000000  1
  O  O32  1  0.51206300  0.69115900  0.24540200  1
  O  O33  1  0.49875800  0.32270300  0.25046900  1
  O  O34  1  0.75011700  0.50629700  0.93403600  1
  O  O35  1  0.73179400  0.00654000  0.81554900  1
  O  O36  1  0.74988300  0.50629700  0.43403600  1
  O  O37  1  0.76820600  0.00654000  0.31554900  1
  O  O38  1  0.98793700  0.69115900  0.74540200  1
  O  O39  1  0.00124200  0.32270300  0.75046900  1
