# generated using pymatgen
data_Cd(BO2)2
_symmetry_space_group_name_H-M   'P 1'
_cell_length_a   5.08324400
_cell_length_b   8.30027700
_cell_length_c   14.00446600
_cell_angle_alpha   90.00000000
_cell_angle_beta   90.00000000
_cell_angle_gamma   90.00000000
_symmetry_Int_Tables_number   1
_chemical_formula_structural   Cd(BO2)2
_chemical_formula_sum   'Cd8 B16 O32'
_cell_volume   590.88109658
_cell_formula_units_Z   8
loop_
 _symmetry_equiv_pos_site_id
 _symmetry_equiv_pos_as_xyz
  1  'x, y, z'
loop_
 _atom_site_type_symbol
 _atom_site_label
 _atom_site_symmetry_multiplicity
 _atom_site_fract_x
 _atom_site_fract_y
 _atom_site_fract_z
 _atom_site_occupancy
  Cd  Cd0  1  0.61445800  0.11785300  0.14602100  1
  Cd  Cd1  1  0.11445800  0.11785300  0.35397900  1
  Cd  Cd2  1  0.11445800  0.38214700  0.14602100  1
  Cd  Cd3  1  0.61445800  0.38214700  0.35397900  1
  Cd  Cd4  1  0.38554200  0.61785300  0.64602100  1
  Cd  Cd5  1  0.88554200  0.61785300  0.85397900  1
  Cd  Cd6  1  0.88554200  0.88214700  0.64602100  1
  Cd  Cd7  1  0.38554200  0.88214700  0.85397900  1
  B  B8  1  0.37632300  0.03443800  0.63864900  1
  B  B9  1  0.87632300  0.03443800  0.86135100  1
  B  B10  1  0.63480100  0.24373600  0.55099900  1
  B  B11  1  0.13480100  0.24373600  0.94900100  1
  B  B12  1  0.13480100  0.25626400  0.55099900  1
  B  B13  1  0.63480100  0.25626400  0.94900100  1
  B  B14  1  0.87632300  0.46556200  0.63864900  1
  B  B15  1  0.37632300  0.46556200  0.86135100  1
  B  B16  1  0.62367700  0.53443800  0.13864900  1
  B  B17  1  0.12367700  0.53443800  0.36135100  1
  B  B18  1  0.36519900  0.74373600  0.05099900  1
  B  B19  1  0.86519900  0.74373600  0.44900100  1
  B  B20  1  0.86519900  0.75626400  0.05099900  1
  B  B21  1  0.36519900  0.75626400  0.44900100  1
  B  B22  1  0.12367700  0.96556200  0.13864900  1
  B  B23  1  0.62367700  0.96556200  0.36135100  1
  O  O24  1  0.61508900  0.09410400  0.60937900  1
  O  O25  1  0.11508900  0.09410400  0.89062100  1
  O  O26  1  0.13492500  0.10839400  0.18830500  1
  O  O27  1  0.63492500  0.10839400  0.31169500  1
  O  O28  1  0.14823600  0.11387700  0.61607200  1
  O  O29  1  0.64823600  0.11387700  0.88392800  1
  O  O30  1  0.38510400  0.23974200  0.00644700  1
  O  O31  1  0.88510400  0.23974200  0.49355300  1
  O  O32  1  0.88510400  0.26025800  0.00644700  1
  O  O33  1  0.38510400  0.26025800  0.49355300  1
  O  O34  1  0.64823600  0.38612300  0.61607200  1
  O  O35  1  0.14823600  0.38612300  0.88392800  1
  O  O36  1  0.63492500  0.39160600  0.18830500  1
  O  O37  1  0.13492500  0.39160600  0.31169500  1
  O  O38  1  0.11508900  0.40589600  0.60937900  1
  O  O39  1  0.61508900  0.40589600  0.89062100  1
  O  O40  1  0.38491100  0.59410400  0.10937900  1
  O  O41  1  0.88491100  0.59410400  0.39062100  1
  O  O42  1  0.86507500  0.60839400  0.68830500  1
  O  O43  1  0.36507500  0.60839400  0.81169500  1
  O  O44  1  0.85176400  0.61387700  0.11607200  1
  O  O45  1  0.35176400  0.61387700  0.38392800  1
  O  O46  1  0.61489600  0.73974200  0.50644700  1
  O  O47  1  0.11489600  0.73974200  0.99355300  1
  O  O48  1  0.11489600  0.76025800  0.50644700  1
  O  O49  1  0.61489600  0.76025800  0.99355300  1
  O  O50  1  0.35176400  0.88612300  0.11607200  1
  O  O51  1  0.85176400  0.88612300  0.38392800  1
  O  O52  1  0.36507500  0.89160600  0.68830500  1
  O  O53  1  0.86507500  0.89160600  0.81169500  1
  O  O54  1  0.88491100  0.90589600  0.10937900  1
  O  O55  1  0.38491100  0.90589600  0.39062100  1
