# generated using pymatgen
data_AgBr
_symmetry_space_group_name_H-M   'P 1'
_cell_length_a   4.08729924
_cell_length_b   4.09504832
_cell_length_c   5.78097873
_cell_angle_alpha   90.00000000
_cell_angle_beta   89.97095226
_cell_angle_gamma   90.00000000
_symmetry_Int_Tables_number   1
_chemical_formula_structural   AgBr
_chemical_formula_sum   'Ag2 Br2'
_cell_volume   96.76020532
_cell_formula_units_Z   2
loop_
 _symmetry_equiv_pos_site_id
 _symmetry_equiv_pos_as_xyz
  1  'x, y, z'
loop_
 _atom_site_type_symbol
 _atom_site_label
 _atom_site_symmetry_multiplicity
 _atom_site_fract_x
 _atom_site_fract_y
 _atom_site_fract_z
 _atom_site_occupancy
  Ag  Ag0  1  0.23560131  0.25000000  0.24878651  1
  Ag  Ag1  1  0.76439869  0.75000000  0.75121349  1
  Br  Br2  1  0.74016108  0.75000000  0.25092061  1
  Br  Br3  1  0.25983892  0.25000000  0.74907939  1
